LTspice 24.0.12 for Windows
Circuit: * C:\Users\adria\OneDrive - UVG\Universidad\3er. Año\6to. Semestre\Analógica 1\HDT\E.1\EJ1.asc
Start Time: Sat Aug 31 19:04:56 2024
Warning: Multiple definitions of model "2scr375p" Type: BJT
Warning: Multiple definitions of model "bc857b" Type: BJT
Warning: Multiple definitions of model "bc847c" Type: BJT
Warning: Multiple definitions of model "bc847b" Type: BJT
solver = Normal
Maximum thread count: 20
tnom = 27
temp = 27
method = modified trap
Direct Newton iteration for .op point succeeded.
Total elapsed time: 0.107 seconds.

